[root]
type=Root
children=system
eventq_index=0
full_system=false
sim_quantum=0
time_sync_enable=false
time_sync_period=100000000000
time_sync_spin_threshold=100000000

[system]
type=System
children=caches clk_domain cpu0 cpu1 dvfs_handler mem_ctrl redirect_paths0 redirect_paths1 redirect_paths2 workload
auto_unlink_shared_backstore=false
cache_line_size=64
eventq_index=0
exit_on_work_items=false
init_param=0
m5ops_base=0
mem_mode=timing
mem_ranges=0:536870912
memories=system.mem_ctrl.dram
mmap_using_noreserve=false
multi_thread=false
num_work_ids=16
readfile=
redirect_paths=system.redirect_paths0 system.redirect_paths1 system.redirect_paths2
shadow_rom_ranges=
shared_backstore=
symbolfile=
thermal_components=
thermal_model=Null
work_begin_ckpt_count=0
work_begin_cpu_id_exit=-1
work_begin_exit_count=0
work_cpus_ckpt_count=0
work_end_ckpt_count=0
work_end_exit_count=0
work_item_id=-1
workload=system.workload
system_port=system.caches.sys_port_proxy.in_ports[0]

[system.caches]
type=RubySystem
children=controllers0 controllers1 controllers2 network power_state sequencers0 sequencers1 sys_port_proxy
access_backing_store=false
all_instructions=false
block_size_bytes=64
clk_domain=system.clk_domain
eventq_index=0
hot_lines=false
memory_size_bits=64
num_of_sequencers=2
number_of_virtual_networks=3
phys_mem=Null
power_model=
power_state=system.caches.power_state
randomization=false
system=system

[system.caches.controllers0]
type=L1Cache_Controller
children=cacheMemory forwardFromDir mandatoryQueue power_state requestToDir responseFromDirOrSibling responseToDirOrSibling
addr_ranges=0:18446744073709551615
buffer_size=0
cacheMemory=system.caches.controllers0.cacheMemory
clk_domain=system.clk_domain
cluster_id=0
downstream_destinations=
eventq_index=0
forwardFromDir=system.caches.controllers0.forwardFromDir
mandatoryQueue=system.caches.controllers0.mandatoryQueue
mandatory_queue_latency=1
number_of_TBEs=256
power_model=
power_state=system.caches.controllers0.power_state
recycle_latency=10
requestToDir=system.caches.controllers0.requestToDir
responseFromDirOrSibling=system.caches.controllers0.responseFromDirOrSibling
responseToDirOrSibling=system.caches.controllers0.responseToDirOrSibling
ruby_system=system.caches
send_evictions=true
sequencer=system.caches.sequencers0
system=system
transitions_per_cycle=32
upstream_destinations=
version=0

[system.caches.controllers0.cacheMemory]
type=RubyCache
children=replacement_policy
assoc=8
atomicALUs=64
atomicLatency=0
block_size=0
dataAccessLatency=1
dataArrayBanks=1
eventq_index=0
is_icache=false
replacement_policy=system.caches.controllers0.cacheMemory.replacement_policy
resourceStalls=false
ruby_system=system.caches
size=16384
start_index_bit=6
tagAccessLatency=1
tagArrayBanks=1

[system.caches.controllers0.cacheMemory.replacement_policy]
type=TreePLRURP
eventq_index=0
num_leaves=8

[system.caches.controllers0.forwardFromDir]
type=MessageBuffer
allow_zero_latency=false
buffer_size=0
eventq_index=0
max_dequeue_rate=0
ordered=true
randomization=ruby_system
routing_priority=0
in_port=system.caches.network.out_port[0]

[system.caches.controllers0.mandatoryQueue]
type=MessageBuffer
allow_zero_latency=false
buffer_size=0
eventq_index=0
max_dequeue_rate=0
ordered=false
randomization=ruby_system
routing_priority=0

[system.caches.controllers0.power_state]
type=PowerState
clk_gate_bins=20
clk_gate_max=1000000000000
clk_gate_min=1000
default_state=UNDEFINED
eventq_index=0
leaders=
possible_states=

[system.caches.controllers0.requestToDir]
type=MessageBuffer
allow_zero_latency=false
buffer_size=0
eventq_index=0
max_dequeue_rate=0
ordered=true
randomization=ruby_system
routing_priority=0
out_port=system.caches.network.in_port[0]

[system.caches.controllers0.responseFromDirOrSibling]
type=MessageBuffer
allow_zero_latency=false
buffer_size=0
eventq_index=0
max_dequeue_rate=0
ordered=true
randomization=ruby_system
routing_priority=0
in_port=system.caches.network.out_port[1]

[system.caches.controllers0.responseToDirOrSibling]
type=MessageBuffer
allow_zero_latency=false
buffer_size=0
eventq_index=0
max_dequeue_rate=0
ordered=true
randomization=ruby_system
routing_priority=0
out_port=system.caches.network.in_port[1]

[system.caches.controllers1]
type=L1Cache_Controller
children=cacheMemory forwardFromDir mandatoryQueue power_state requestToDir responseFromDirOrSibling responseToDirOrSibling
addr_ranges=0:18446744073709551615
buffer_size=0
cacheMemory=system.caches.controllers1.cacheMemory
clk_domain=system.clk_domain
cluster_id=0
downstream_destinations=
eventq_index=0
forwardFromDir=system.caches.controllers1.forwardFromDir
mandatoryQueue=system.caches.controllers1.mandatoryQueue
mandatory_queue_latency=1
number_of_TBEs=256
power_model=
power_state=system.caches.controllers1.power_state
recycle_latency=10
requestToDir=system.caches.controllers1.requestToDir
responseFromDirOrSibling=system.caches.controllers1.responseFromDirOrSibling
responseToDirOrSibling=system.caches.controllers1.responseToDirOrSibling
ruby_system=system.caches
send_evictions=true
sequencer=system.caches.sequencers1
system=system
transitions_per_cycle=32
upstream_destinations=
version=1

[system.caches.controllers1.cacheMemory]
type=RubyCache
children=replacement_policy
assoc=8
atomicALUs=64
atomicLatency=0
block_size=0
dataAccessLatency=1
dataArrayBanks=1
eventq_index=0
is_icache=false
replacement_policy=system.caches.controllers1.cacheMemory.replacement_policy
resourceStalls=false
ruby_system=system.caches
size=16384
start_index_bit=6
tagAccessLatency=1
tagArrayBanks=1

[system.caches.controllers1.cacheMemory.replacement_policy]
type=TreePLRURP
eventq_index=0
num_leaves=8

[system.caches.controllers1.forwardFromDir]
type=MessageBuffer
allow_zero_latency=false
buffer_size=0
eventq_index=0
max_dequeue_rate=0
ordered=true
randomization=ruby_system
routing_priority=0
in_port=system.caches.network.out_port[2]

[system.caches.controllers1.mandatoryQueue]
type=MessageBuffer
allow_zero_latency=false
buffer_size=0
eventq_index=0
max_dequeue_rate=0
ordered=false
randomization=ruby_system
routing_priority=0

[system.caches.controllers1.power_state]
type=PowerState
clk_gate_bins=20
clk_gate_max=1000000000000
clk_gate_min=1000
default_state=UNDEFINED
eventq_index=0
leaders=
possible_states=

[system.caches.controllers1.requestToDir]
type=MessageBuffer
allow_zero_latency=false
buffer_size=0
eventq_index=0
max_dequeue_rate=0
ordered=true
randomization=ruby_system
routing_priority=0
out_port=system.caches.network.in_port[2]

[system.caches.controllers1.responseFromDirOrSibling]
type=MessageBuffer
allow_zero_latency=false
buffer_size=0
eventq_index=0
max_dequeue_rate=0
ordered=true
randomization=ruby_system
routing_priority=0
in_port=system.caches.network.out_port[3]

[system.caches.controllers1.responseToDirOrSibling]
type=MessageBuffer
allow_zero_latency=false
buffer_size=0
eventq_index=0
max_dequeue_rate=0
ordered=true
randomization=ruby_system
routing_priority=0
out_port=system.caches.network.in_port[3]

[system.caches.controllers2]
type=Directory_Controller
children=directory forwardToCache power_state requestFromCache requestToMemory responseFromCache responseFromMemory responseToCache
addr_ranges=0:536870912
buffer_size=0
clk_domain=system.clk_domain
cluster_id=0
directory=system.caches.controllers2.directory
downstream_destinations=
eventq_index=0
forwardToCache=system.caches.controllers2.forwardToCache
mandatory_queue_latency=1
number_of_TBEs=256
power_model=
power_state=system.caches.controllers2.power_state
recycle_latency=10
requestFromCache=system.caches.controllers2.requestFromCache
requestToMemory=system.caches.controllers2.requestToMemory
responseFromCache=system.caches.controllers2.responseFromCache
responseFromMemory=system.caches.controllers2.responseFromMemory
responseToCache=system.caches.controllers2.responseToCache
ruby_system=system.caches
system=system
toMemLatency=1
transitions_per_cycle=32
upstream_destinations=
version=0
memory_out_port=system.mem_ctrl.port

[system.caches.controllers2.directory]
type=RubyDirectoryMemory
addr_ranges=0:536870912
eventq_index=0

[system.caches.controllers2.forwardToCache]
type=MessageBuffer
allow_zero_latency=false
buffer_size=0
eventq_index=0
max_dequeue_rate=0
ordered=true
randomization=ruby_system
routing_priority=0
out_port=system.caches.network.in_port[5]

[system.caches.controllers2.power_state]
type=PowerState
clk_gate_bins=20
clk_gate_max=1000000000000
clk_gate_min=1000
default_state=UNDEFINED
eventq_index=0
leaders=
possible_states=

[system.caches.controllers2.requestFromCache]
type=MessageBuffer
allow_zero_latency=false
buffer_size=0
eventq_index=0
max_dequeue_rate=0
ordered=true
randomization=ruby_system
routing_priority=0
in_port=system.caches.network.out_port[4]

[system.caches.controllers2.requestToMemory]
type=MessageBuffer
allow_zero_latency=false
buffer_size=0
eventq_index=0
max_dequeue_rate=0
ordered=false
randomization=ruby_system
routing_priority=0

[system.caches.controllers2.responseFromCache]
type=MessageBuffer
allow_zero_latency=false
buffer_size=0
eventq_index=0
max_dequeue_rate=0
ordered=true
randomization=ruby_system
routing_priority=0
in_port=system.caches.network.out_port[5]

[system.caches.controllers2.responseFromMemory]
type=MessageBuffer
allow_zero_latency=false
buffer_size=0
eventq_index=0
max_dequeue_rate=0
ordered=false
randomization=ruby_system
routing_priority=0

[system.caches.controllers2.responseToCache]
type=MessageBuffer
allow_zero_latency=false
buffer_size=0
eventq_index=0
max_dequeue_rate=0
ordered=true
randomization=ruby_system
routing_priority=0
out_port=system.caches.network.in_port[4]

[system.caches.network]
type=SimpleNetwork
children=ext_links0 ext_links1 ext_links2 int_links0 int_links1 int_links2 int_links3 int_links4 int_links5 power_state routers0 routers1 routers2
buffer_size=0
clk_domain=system.clk_domain
control_msg_size=8
data_msg_size=64
endpoint_bandwidth=1000
eventq_index=0
ext_links=system.caches.network.ext_links0 system.caches.network.ext_links1 system.caches.network.ext_links2
int_links=system.caches.network.int_links0 system.caches.network.int_links1 system.caches.network.int_links2 system.caches.network.int_links3 system.caches.network.int_links4 system.caches.network.int_links5
netifs=
number_of_virtual_networks=3
physical_vnets_bandwidth=
physical_vnets_channels=
power_model=
power_state=system.caches.network.power_state
routers=system.caches.network.routers0 system.caches.network.routers1 system.caches.network.routers2
ruby_system=system.caches
topology=Not Specified
in_port=system.caches.controllers0.requestToDir.out_port system.caches.controllers0.responseToDirOrSibling.out_port system.caches.controllers1.requestToDir.out_port system.caches.controllers1.responseToDirOrSibling.out_port system.caches.controllers2.responseToCache.out_port system.caches.controllers2.forwardToCache.out_port
out_port=system.caches.controllers0.forwardFromDir.in_port system.caches.controllers0.responseFromDirOrSibling.in_port system.caches.controllers1.forwardFromDir.in_port system.caches.controllers1.responseFromDirOrSibling.in_port system.caches.controllers2.requestFromCache.in_port system.caches.controllers2.responseFromCache.in_port

[system.caches.network.ext_links0]
type=SimpleExtLink
bandwidth_factor=16
eventq_index=0
ext_node=system.caches.controllers0
int_node=system.caches.network.routers0
latency=1
link_id=0
supported_vnets=
weight=1

[system.caches.network.ext_links1]
type=SimpleExtLink
bandwidth_factor=16
eventq_index=0
ext_node=system.caches.controllers1
int_node=system.caches.network.routers1
latency=1
link_id=1
supported_vnets=
weight=1

[system.caches.network.ext_links2]
type=SimpleExtLink
bandwidth_factor=16
eventq_index=0
ext_node=system.caches.controllers2
int_node=system.caches.network.routers2
latency=1
link_id=2
supported_vnets=
weight=1

[system.caches.network.int_links0]
type=SimpleIntLink
children=buffers0 buffers1 buffers2
bandwidth_factor=16
buffers=system.caches.network.int_links0.buffers0 system.caches.network.int_links0.buffers1 system.caches.network.int_links0.buffers2
dst_inport=
dst_node=system.caches.network.routers1
eventq_index=0
latency=1
link_id=1
src_node=system.caches.network.routers0
src_outport=
supported_vnets=
weight=1

[system.caches.network.int_links0.buffers0]
type=MessageBuffer
allow_zero_latency=false
buffer_size=0
eventq_index=0
max_dequeue_rate=0
ordered=true
randomization=ruby_system
routing_priority=0

[system.caches.network.int_links0.buffers1]
type=MessageBuffer
allow_zero_latency=false
buffer_size=0
eventq_index=0
max_dequeue_rate=0
ordered=true
randomization=ruby_system
routing_priority=0

[system.caches.network.int_links0.buffers2]
type=MessageBuffer
allow_zero_latency=false
buffer_size=0
eventq_index=0
max_dequeue_rate=0
ordered=true
randomization=ruby_system
routing_priority=0

[system.caches.network.int_links1]
type=SimpleIntLink
children=buffers0 buffers1 buffers2
bandwidth_factor=16
buffers=system.caches.network.int_links1.buffers0 system.caches.network.int_links1.buffers1 system.caches.network.int_links1.buffers2
dst_inport=
dst_node=system.caches.network.routers2
eventq_index=0
latency=1
link_id=2
src_node=system.caches.network.routers0
src_outport=
supported_vnets=
weight=1

[system.caches.network.int_links1.buffers0]
type=MessageBuffer
allow_zero_latency=false
buffer_size=0
eventq_index=0
max_dequeue_rate=0
ordered=true
randomization=ruby_system
routing_priority=0

[system.caches.network.int_links1.buffers1]
type=MessageBuffer
allow_zero_latency=false
buffer_size=0
eventq_index=0
max_dequeue_rate=0
ordered=true
randomization=ruby_system
routing_priority=0

[system.caches.network.int_links1.buffers2]
type=MessageBuffer
allow_zero_latency=false
buffer_size=0
eventq_index=0
max_dequeue_rate=0
ordered=true
randomization=ruby_system
routing_priority=0

[system.caches.network.int_links2]
type=SimpleIntLink
children=buffers0 buffers1 buffers2
bandwidth_factor=16
buffers=system.caches.network.int_links2.buffers0 system.caches.network.int_links2.buffers1 system.caches.network.int_links2.buffers2
dst_inport=
dst_node=system.caches.network.routers0
eventq_index=0
latency=1
link_id=3
src_node=system.caches.network.routers1
src_outport=
supported_vnets=
weight=1

[system.caches.network.int_links2.buffers0]
type=MessageBuffer
allow_zero_latency=false
buffer_size=0
eventq_index=0
max_dequeue_rate=0
ordered=true
randomization=ruby_system
routing_priority=0

[system.caches.network.int_links2.buffers1]
type=MessageBuffer
allow_zero_latency=false
buffer_size=0
eventq_index=0
max_dequeue_rate=0
ordered=true
randomization=ruby_system
routing_priority=0

[system.caches.network.int_links2.buffers2]
type=MessageBuffer
allow_zero_latency=false
buffer_size=0
eventq_index=0
max_dequeue_rate=0
ordered=true
randomization=ruby_system
routing_priority=0

[system.caches.network.int_links3]
type=SimpleIntLink
children=buffers0 buffers1 buffers2
bandwidth_factor=16
buffers=system.caches.network.int_links3.buffers0 system.caches.network.int_links3.buffers1 system.caches.network.int_links3.buffers2
dst_inport=
dst_node=system.caches.network.routers2
eventq_index=0
latency=1
link_id=4
src_node=system.caches.network.routers1
src_outport=
supported_vnets=
weight=1

[system.caches.network.int_links3.buffers0]
type=MessageBuffer
allow_zero_latency=false
buffer_size=0
eventq_index=0
max_dequeue_rate=0
ordered=true
randomization=ruby_system
routing_priority=0

[system.caches.network.int_links3.buffers1]
type=MessageBuffer
allow_zero_latency=false
buffer_size=0
eventq_index=0
max_dequeue_rate=0
ordered=true
randomization=ruby_system
routing_priority=0

[system.caches.network.int_links3.buffers2]
type=MessageBuffer
allow_zero_latency=false
buffer_size=0
eventq_index=0
max_dequeue_rate=0
ordered=true
randomization=ruby_system
routing_priority=0

[system.caches.network.int_links4]
type=SimpleIntLink
children=buffers0 buffers1 buffers2
bandwidth_factor=16
buffers=system.caches.network.int_links4.buffers0 system.caches.network.int_links4.buffers1 system.caches.network.int_links4.buffers2
dst_inport=
dst_node=system.caches.network.routers0
eventq_index=0
latency=1
link_id=5
src_node=system.caches.network.routers2
src_outport=
supported_vnets=
weight=1

[system.caches.network.int_links4.buffers0]
type=MessageBuffer
allow_zero_latency=false
buffer_size=0
eventq_index=0
max_dequeue_rate=0
ordered=true
randomization=ruby_system
routing_priority=0

[system.caches.network.int_links4.buffers1]
type=MessageBuffer
allow_zero_latency=false
buffer_size=0
eventq_index=0
max_dequeue_rate=0
ordered=true
randomization=ruby_system
routing_priority=0

[system.caches.network.int_links4.buffers2]
type=MessageBuffer
allow_zero_latency=false
buffer_size=0
eventq_index=0
max_dequeue_rate=0
ordered=true
randomization=ruby_system
routing_priority=0

[system.caches.network.int_links5]
type=SimpleIntLink
children=buffers0 buffers1 buffers2
bandwidth_factor=16
buffers=system.caches.network.int_links5.buffers0 system.caches.network.int_links5.buffers1 system.caches.network.int_links5.buffers2
dst_inport=
dst_node=system.caches.network.routers1
eventq_index=0
latency=1
link_id=6
src_node=system.caches.network.routers2
src_outport=
supported_vnets=
weight=1

[system.caches.network.int_links5.buffers0]
type=MessageBuffer
allow_zero_latency=false
buffer_size=0
eventq_index=0
max_dequeue_rate=0
ordered=true
randomization=ruby_system
routing_priority=0

[system.caches.network.int_links5.buffers1]
type=MessageBuffer
allow_zero_latency=false
buffer_size=0
eventq_index=0
max_dequeue_rate=0
ordered=true
randomization=ruby_system
routing_priority=0

[system.caches.network.int_links5.buffers2]
type=MessageBuffer
allow_zero_latency=false
buffer_size=0
eventq_index=0
max_dequeue_rate=0
ordered=true
randomization=ruby_system
routing_priority=0

[system.caches.network.power_state]
type=PowerState
clk_gate_bins=20
clk_gate_max=1000000000000
clk_gate_min=1000
default_state=UNDEFINED
eventq_index=0
leaders=
possible_states=

[system.caches.network.routers0]
type=Switch
children=port_buffers0 port_buffers1 port_buffers2 port_buffers3 port_buffers4 port_buffers5 port_buffers6 port_buffers7 port_buffers8 power_state routing_unit
clk_domain=system.clk_domain
eventq_index=0
ext_routing_latency=1
int_routing_latency=1
latency=1
port_buffers=system.caches.network.routers0.port_buffers0 system.caches.network.routers0.port_buffers1 system.caches.network.routers0.port_buffers2 system.caches.network.routers0.port_buffers3 system.caches.network.routers0.port_buffers4 system.caches.network.routers0.port_buffers5 system.caches.network.routers0.port_buffers6 system.caches.network.routers0.port_buffers7 system.caches.network.routers0.port_buffers8
power_model=
power_state=system.caches.network.routers0.power_state
router_id=0
routing_unit=system.caches.network.routers0.routing_unit
virt_nets=3

[system.caches.network.routers0.port_buffers0]
type=MessageBuffer
allow_zero_latency=true
buffer_size=0
eventq_index=0
max_dequeue_rate=0
ordered=true
randomization=ruby_system
routing_priority=0

[system.caches.network.routers0.port_buffers1]
type=MessageBuffer
allow_zero_latency=true
buffer_size=0
eventq_index=0
max_dequeue_rate=0
ordered=true
randomization=ruby_system
routing_priority=0

[system.caches.network.routers0.port_buffers2]
type=MessageBuffer
allow_zero_latency=true
buffer_size=0
eventq_index=0
max_dequeue_rate=0
ordered=true
randomization=ruby_system
routing_priority=0

[system.caches.network.routers0.port_buffers3]
type=MessageBuffer
allow_zero_latency=true
buffer_size=0
eventq_index=0
max_dequeue_rate=0
ordered=true
randomization=ruby_system
routing_priority=0

[system.caches.network.routers0.port_buffers4]
type=MessageBuffer
allow_zero_latency=true
buffer_size=0
eventq_index=0
max_dequeue_rate=0
ordered=true
randomization=ruby_system
routing_priority=0

[system.caches.network.routers0.port_buffers5]
type=MessageBuffer
allow_zero_latency=true
buffer_size=0
eventq_index=0
max_dequeue_rate=0
ordered=true
randomization=ruby_system
routing_priority=0

[system.caches.network.routers0.port_buffers6]
type=MessageBuffer
allow_zero_latency=true
buffer_size=0
eventq_index=0
max_dequeue_rate=0
ordered=true
randomization=ruby_system
routing_priority=0

[system.caches.network.routers0.port_buffers7]
type=MessageBuffer
allow_zero_latency=true
buffer_size=0
eventq_index=0
max_dequeue_rate=0
ordered=true
randomization=ruby_system
routing_priority=0

[system.caches.network.routers0.port_buffers8]
type=MessageBuffer
allow_zero_latency=true
buffer_size=0
eventq_index=0
max_dequeue_rate=0
ordered=true
randomization=ruby_system
routing_priority=0

[system.caches.network.routers0.power_state]
type=PowerState
clk_gate_bins=20
clk_gate_max=1000000000000
clk_gate_min=1000
default_state=UNDEFINED
eventq_index=0
leaders=
possible_states=

[system.caches.network.routers0.routing_unit]
type=WeightBased
adaptive_routing=false
eventq_index=0

[system.caches.network.routers1]
type=Switch
children=port_buffers0 port_buffers1 port_buffers2 port_buffers3 port_buffers4 port_buffers5 port_buffers6 port_buffers7 port_buffers8 power_state routing_unit
clk_domain=system.clk_domain
eventq_index=0
ext_routing_latency=1
int_routing_latency=1
latency=1
port_buffers=system.caches.network.routers1.port_buffers0 system.caches.network.routers1.port_buffers1 system.caches.network.routers1.port_buffers2 system.caches.network.routers1.port_buffers3 system.caches.network.routers1.port_buffers4 system.caches.network.routers1.port_buffers5 system.caches.network.routers1.port_buffers6 system.caches.network.routers1.port_buffers7 system.caches.network.routers1.port_buffers8
power_model=
power_state=system.caches.network.routers1.power_state
router_id=1
routing_unit=system.caches.network.routers1.routing_unit
virt_nets=3

[system.caches.network.routers1.port_buffers0]
type=MessageBuffer
allow_zero_latency=true
buffer_size=0
eventq_index=0
max_dequeue_rate=0
ordered=true
randomization=ruby_system
routing_priority=0

[system.caches.network.routers1.port_buffers1]
type=MessageBuffer
allow_zero_latency=true
buffer_size=0
eventq_index=0
max_dequeue_rate=0
ordered=true
randomization=ruby_system
routing_priority=0

[system.caches.network.routers1.port_buffers2]
type=MessageBuffer
allow_zero_latency=true
buffer_size=0
eventq_index=0
max_dequeue_rate=0
ordered=true
randomization=ruby_system
routing_priority=0

[system.caches.network.routers1.port_buffers3]
type=MessageBuffer
allow_zero_latency=true
buffer_size=0
eventq_index=0
max_dequeue_rate=0
ordered=true
randomization=ruby_system
routing_priority=0

[system.caches.network.routers1.port_buffers4]
type=MessageBuffer
allow_zero_latency=true
buffer_size=0
eventq_index=0
max_dequeue_rate=0
ordered=true
randomization=ruby_system
routing_priority=0

[system.caches.network.routers1.port_buffers5]
type=MessageBuffer
allow_zero_latency=true
buffer_size=0
eventq_index=0
max_dequeue_rate=0
ordered=true
randomization=ruby_system
routing_priority=0

[system.caches.network.routers1.port_buffers6]
type=MessageBuffer
allow_zero_latency=true
buffer_size=0
eventq_index=0
max_dequeue_rate=0
ordered=true
randomization=ruby_system
routing_priority=0

[system.caches.network.routers1.port_buffers7]
type=MessageBuffer
allow_zero_latency=true
buffer_size=0
eventq_index=0
max_dequeue_rate=0
ordered=true
randomization=ruby_system
routing_priority=0

[system.caches.network.routers1.port_buffers8]
type=MessageBuffer
allow_zero_latency=true
buffer_size=0
eventq_index=0
max_dequeue_rate=0
ordered=true
randomization=ruby_system
routing_priority=0

[system.caches.network.routers1.power_state]
type=PowerState
clk_gate_bins=20
clk_gate_max=1000000000000
clk_gate_min=1000
default_state=UNDEFINED
eventq_index=0
leaders=
possible_states=

[system.caches.network.routers1.routing_unit]
type=WeightBased
adaptive_routing=false
eventq_index=0

[system.caches.network.routers2]
type=Switch
children=port_buffers0 port_buffers1 port_buffers2 port_buffers3 port_buffers4 port_buffers5 port_buffers6 port_buffers7 port_buffers8 power_state routing_unit
clk_domain=system.clk_domain
eventq_index=0
ext_routing_latency=1
int_routing_latency=1
latency=1
port_buffers=system.caches.network.routers2.port_buffers0 system.caches.network.routers2.port_buffers1 system.caches.network.routers2.port_buffers2 system.caches.network.routers2.port_buffers3 system.caches.network.routers2.port_buffers4 system.caches.network.routers2.port_buffers5 system.caches.network.routers2.port_buffers6 system.caches.network.routers2.port_buffers7 system.caches.network.routers2.port_buffers8
power_model=
power_state=system.caches.network.routers2.power_state
router_id=2
routing_unit=system.caches.network.routers2.routing_unit
virt_nets=3

[system.caches.network.routers2.port_buffers0]
type=MessageBuffer
allow_zero_latency=true
buffer_size=0
eventq_index=0
max_dequeue_rate=0
ordered=true
randomization=ruby_system
routing_priority=0

[system.caches.network.routers2.port_buffers1]
type=MessageBuffer
allow_zero_latency=true
buffer_size=0
eventq_index=0
max_dequeue_rate=0
ordered=true
randomization=ruby_system
routing_priority=0

[system.caches.network.routers2.port_buffers2]
type=MessageBuffer
allow_zero_latency=true
buffer_size=0
eventq_index=0
max_dequeue_rate=0
ordered=true
randomization=ruby_system
routing_priority=0

[system.caches.network.routers2.port_buffers3]
type=MessageBuffer
allow_zero_latency=true
buffer_size=0
eventq_index=0
max_dequeue_rate=0
ordered=true
randomization=ruby_system
routing_priority=0

[system.caches.network.routers2.port_buffers4]
type=MessageBuffer
allow_zero_latency=true
buffer_size=0
eventq_index=0
max_dequeue_rate=0
ordered=true
randomization=ruby_system
routing_priority=0

[system.caches.network.routers2.port_buffers5]
type=MessageBuffer
allow_zero_latency=true
buffer_size=0
eventq_index=0
max_dequeue_rate=0
ordered=true
randomization=ruby_system
routing_priority=0

[system.caches.network.routers2.port_buffers6]
type=MessageBuffer
allow_zero_latency=true
buffer_size=0
eventq_index=0
max_dequeue_rate=0
ordered=true
randomization=ruby_system
routing_priority=0

[system.caches.network.routers2.port_buffers7]
type=MessageBuffer
allow_zero_latency=true
buffer_size=0
eventq_index=0
max_dequeue_rate=0
ordered=true
randomization=ruby_system
routing_priority=0

[system.caches.network.routers2.port_buffers8]
type=MessageBuffer
allow_zero_latency=true
buffer_size=0
eventq_index=0
max_dequeue_rate=0
ordered=true
randomization=ruby_system
routing_priority=0

[system.caches.network.routers2.power_state]
type=PowerState
clk_gate_bins=20
clk_gate_max=1000000000000
clk_gate_min=1000
default_state=UNDEFINED
eventq_index=0
leaders=
possible_states=

[system.caches.network.routers2.routing_unit]
type=WeightBased
adaptive_routing=false
eventq_index=0

[system.caches.power_state]
type=PowerState
clk_gate_bins=20
clk_gate_max=1000000000000
clk_gate_min=1000
default_state=UNDEFINED
eventq_index=0
leaders=
possible_states=

[system.caches.sequencers0]
type=RubySequencer
children=power_state
clk_domain=system.clk_domain
coreid=99
dcache=system.caches.controllers0.cacheMemory
deadlock_threshold=500000
eventq_index=0
garnet_standalone=false
is_cpu_sequencer=true
max_outstanding_requests=16
no_retry_on_stall=false
power_model=
power_state=system.caches.sequencers0.power_state
ruby_system=system.caches
support_data_reqs=true
support_inst_reqs=true
system=system
using_ruby_tester=false
version=0
in_ports=system.cpu0.icache_port system.cpu0.dcache_port system.cpu0.mmu.itb.walker.port system.cpu0.mmu.dtb.walker.port system.cpu0.interrupts.int_requestor
interrupt_out_port=system.cpu0.interrupts.pio system.cpu0.interrupts.int_responder

[system.caches.sequencers0.power_state]
type=PowerState
clk_gate_bins=20
clk_gate_max=1000000000000
clk_gate_min=1000
default_state=UNDEFINED
eventq_index=0
leaders=
possible_states=

[system.caches.sequencers1]
type=RubySequencer
children=power_state
clk_domain=system.clk_domain
coreid=99
dcache=system.caches.controllers1.cacheMemory
deadlock_threshold=500000
eventq_index=0
garnet_standalone=false
is_cpu_sequencer=true
max_outstanding_requests=16
no_retry_on_stall=false
power_model=
power_state=system.caches.sequencers1.power_state
ruby_system=system.caches
support_data_reqs=true
support_inst_reqs=true
system=system
using_ruby_tester=false
version=1
in_ports=system.cpu1.icache_port system.cpu1.dcache_port system.cpu1.mmu.itb.walker.port system.cpu1.mmu.dtb.walker.port system.cpu1.interrupts.int_requestor
interrupt_out_port=system.cpu1.interrupts.pio system.cpu1.interrupts.int_responder

[system.caches.sequencers1.power_state]
type=PowerState
clk_gate_bins=20
clk_gate_max=1000000000000
clk_gate_min=1000
default_state=UNDEFINED
eventq_index=0
leaders=
possible_states=

[system.caches.sys_port_proxy]
type=RubyPortProxy
children=power_state
clk_domain=system.clk_domain
eventq_index=0
is_cpu_sequencer=true
no_retry_on_stall=false
power_model=
power_state=system.caches.sys_port_proxy.power_state
ruby_system=system.caches
support_data_reqs=true
support_inst_reqs=true
system=system
using_ruby_tester=false
version=0
in_ports=system.system_port

[system.caches.sys_port_proxy.power_state]
type=PowerState
clk_gate_bins=20
clk_gate_max=1000000000000
clk_gate_min=1000
default_state=UNDEFINED
eventq_index=0
leaders=
possible_states=

[system.clk_domain]
type=SrcClockDomain
children=voltage_domain
clock=1000
domain_id=-1
eventq_index=0
init_perf_level=0
voltage_domain=system.clk_domain.voltage_domain

[system.clk_domain.voltage_domain]
type=VoltageDomain
eventq_index=0
voltage=1.0

[system.cpu0]
type=BaseTimingSimpleCPU
children=decoder interrupts isa mmu power_state tracer workload
branchPred=Null
checker=Null
clk_domain=system.clk_domain
cpu_id=-1
decoder=system.cpu0.decoder
do_checkpoint_insts=true
do_statistics_insts=true
eventq_index=0
function_trace=false
function_trace_start=0
interrupts=system.cpu0.interrupts
isa=system.cpu0.isa