[hello]
type=HelloObject
eventq_index=0
number_of_fires=4
time_to_wait=1000000

[root]
type=Root
children=hello
eventq_index=0
full_system=false
sim_quantum=0
time_sync_enable=false
time_sync_period=100000000000
time_sync_spin_threshold=100000000

